Circuit: * C:\Users\Pierre\Documents\ISEN\CIR3\Semestre2\Electronique Analogique\TP elec\TP5\passe-haut.asc

WARNING: Less than two connections to node NC_01.  This node is used by V1.
WARNING: Less than two connections to node NC_02.  This node is used by V2.
Direct Newton iteration for .op point succeeded.

Date: Wed Apr 13 10:44:01 2022
Total elapsed time: 0.224 seconds.

tnom = 27
temp = 27
method = trap
totiter = 10
traniter = 0
tranpoints = 0
accept = 0
rejected = 0
matrix size = 14
fillins = 1
solver = Normal
Matrix Compiler1:      72 opcodes
Matrix Compiler2: 1.17 KB object code size
